/batch
/config,noeldb,1     ! force off writing results to database
*get,_wallstrt,active,,time,wall
! ANSYS input file written by Workbench version 2022 R1
! File used for geometry attach: E:\Учёбка\Текущий семестр\КСКР\Курсовая работа\pipeline_element_files\dp0\SYS\DM\SYS.agdb
/title,pipeline_element--Static Structural (A5)
! ****** Begin Custom Load Command Snippet ******
/COM, ACT Extensions:
/COM,     LSDYNA, 2021.1
/COM,     5f463412-bd3e-484b-87e7-cbc0a665e474, wbex
/COM,
! ****** End   Custom Load Command Snippet ******
*DIM,_wb_ProjectScratch_dir,string,248
_wb_ProjectScratch_dir(1) = 'E:\Учёбка\Текущий семестр\КСКР\Курсовая работа\pipeline_element_files\dp0\SYS\MECH\'
*DIM,_wb_SolverFiles_dir,string,248
_wb_SolverFiles_dir(1) = 'E:\Учёбка\Текущий семестр\КСКР\Курсовая работа\pipeline_element_files\dp0\SYS\MECH\'
*DIM,_wb_userfiles_dir,string,248
_wb_userfiles_dir(1) = 'E:\Учёбка\Текущий семестр\КСКР\Курсовая работа\pipeline_element_files\user_files\'
/com,--- Data in consistent MKS units. See Solving Units in the help system for more information.
/units,MKS
/nopr
/wb,file,start              !  signify a WB generated input file
/prep7
! Turn off shape checking because checks already performed inside WB mesher.
! See help system for more information.
SHPP,OFF,,NOWARN
/nolist
etcon,set             ! allow ANSYS to choose best KEYOP's for 180x elements, resets any applicable keyopt to MAPDL defaults
/com,*********** Nodes for the whole assembly ***********
nblock,3,,2255
(1i9,3e20.9e3)
        1     2.000000000E-02     1.000000000E-01     0.000000000E+00
        2     1.000000000E-01     1.000000000E-01     0.000000000E+00
        3     2.163130672E-02     8.869321549E-02     0.000000000E+00
        4     2.639216880E-02     7.830867266E-02     0.000000000E+00
        5     3.389426492E-02     6.969339023E-02     0.000000000E+00
        6     4.352568410E-02     6.355007661E-02     0.000000000E+00
        7     5.450083638E-02     6.037981323E-02     0.000000000E+00
        8     6.592452980E-02     6.044118370E-02     0.000000000E+00
        9     7.686498695E-02     6.372918232E-02     0.000000000E+00
       10     8.642984577E-02     6.997562237E-02     0.000000000E+00
       11     9.383894535E-02     7.867101086E-02     0.000000000E+00
       12     9.848795998E-02     8.910610552E-02     0.000000000E+00
       13     2.000000000E-02     1.000000000E-01     1.000000000E-03
       14     1.000000000E-01     1.000000000E-01     1.000000000E-03
       15     2.163130672E-02     8.869321549E-02     1.000000000E-03
       16     2.639216880E-02     7.830867266E-02     1.000000000E-03
       17     3.389426492E-02     6.969339023E-02     1.000000000E-03
       18     4.352568410E-02     6.355007661E-02     1.000000000E-03
       19     5.450083638E-02     6.037981323E-02     1.000000000E-03
       20     6.592452980E-02     6.044118370E-02     1.000000000E-03
! ... 2031 like lines cut
/wb,elem,start            !  set before creation of elements
/com,*********** Elements for Body 1 "Solid" ***********
et,1,187
eblock,19,solid,,933
(19i9)
        1        1        1        1        0        0        0        0       10        0        1      143      369      296      173     1077     1859     1076     1071
     1247     1246
        1        1        1        1        0        0        0        0       10        0        2      143      266      369      245     1075     1776     1077     1073
     1714     1717
        1        1        1        1        0        0        0        0       10        0        3      131      256      249      133     1005     1731     1004     1000
     1016     1014
        1        1        1        1        0        0        0        0       10        0        4      144      258      295      172     1082     1752     1084     1078
     1241     1242
        1        1        1        1        0        0        0        0       10        0        5      131      248      256      136     1003     1728     1005     1002
     1030     1032
        1        1        1        1        0        0        0        0       10        0        6       36      249      252      126      564     1730      565      563
      977      978
        1        1        1        1        0        0        0        0       10        0        7      123      249      131      248      963     1004      961      962
     1726     1003
        1        1        1        1        0        0        0        0       10        0        8      136      248      258      255     1030     1729     1033     1031
     1727     1743
        1        1        1        1        0        0        0        0       10        0        9       31      248      123      131      533      962      529      530
     1003      961
        1        1        1        1        0        0        0        0       10        0       10       26      252      253      127      507     1738      508      506
      980      981
! ... 1847 like lines cut
!Material Id = {6E4B3442-1413-4386-BD5A-666116004320}
/wb,elem,end               !  done creating elements
/com,*********** Send User Defined Coordinate System(s) ***********
csys,0
toffst,273.15,  ! Temperature offset from absolute zero
/com,*********** Set Reference Temperature ***********
tref,22.
/wb,mat,start              !  starting to send materials
/com,*********** Send Materials ***********
Temperature = 'TEMP' ! Temperature
MP,DENS,1,7850,	! kg m^-3
MP,ALPX,1,1.2e-05,	! C^-1
MP,C,1,434,	! J kg^-1 C^-1
MP,KXX,1,60.5,	! W m^-1 C^-1
MP,RSVX,1,1.7e-07,	! kg m^3 A^-2 s^-3
MP,EX,1,200000000000,	! Pa
MP,NUXY,1,0.3,
MP,MURX,1,10000,
MP,UVID,1,725544df-a400-4593-b080-514a9d78afbc
MP,UMID,1,59002a79-71c2-428e-906b-55d7dbee100e

/wb,mat,end                !  done sending materials
!************************* Model Summary ********************
!Solid,	Structural Steel 2,	matid,	1
!************************* End Model Summary ********************
! get the diagonal of the bounding box. Needed later for other things
*get,_xmin,node,,mnloc,x
*get,_ymin,node,,mnloc,y
*get,_zmin,node,,mnloc,z
*get,_xmax,node,,mxloc,x
*get,_ymax,node,,mxloc,y
*get,_zmax,node,,mxloc,z
_ASMDIAG=(_xmax-_xmin)*(_xmax-_xmin)+(_ymax-_ymin)*(_ymax-_ymin)+(_zmax-_zmin)*(_zmax-_zmin)
_ASMDIAG=SQRT(_ASMDIAG)
/wb,contact,start          !  starting to send contact
/wb,contact,end            !  done creating contacts
/golist
/wb,load,start             !  starting to send loads
/com,*********** Fixed Supports ***********
CMBLOCK,_FIXEDSU,NODE,       57
(8i10)
        67        85       103       104       105       106       107       108
       109       110       111       112       113       114       115       116
       117       118       119       120       697       698       816       817
       873       874       875       877       878       879       884       885
       886       889       890       891       895       896       897       902
       903       904       907       908       909       912       913       914
       917       919       922       928       933       937       940       945
       950
cmsel,s,_FIXEDSU
d,all,all
nsel,all
/com,*********** Define Force Using Surface Effect Elements ***********
local,12,0,0.,0.,0.,0.,0.,0.
csys,0
et,2,154
eblock,10,,,18
(15i9)
     1674        2        2        2       12       57       45       66       66      599      600       66      659
     1675        2        2        2       12       58       50       59       59      617      618       59      662
     1676        2        2        2       12       41       45       57       57      582      599       57      583
     1677        2        2        2       12       57       65       56       56      658      655       56      654
     1678        2        2        2       12       59       50       60       60      618      619       60      664
     1679        2        2        2       12       49       50       58       58      612      617       58      613
     1680        2        2        2       12       52       62       61       61      631      672       61      630
     1681        2        2        2       12       52       61       51       51      630      625       51      623
     1682        2        2        2       12       53       62       52       52      637      631       52      629
     1683        2        2        2       12       62       53       63       63      637      638       63      675
     1684        2        2        2       12       60       50       51       51      619      616       51      624
     1685        2        2        2       12       60       51       61       61      624      625       61      668
     1686        2        2        2       12       55       65       64       64      651      682       64      650
     1687        2        2        2       12       55       64       54       54      650      645       54      643
     1688        2        2        2       12       63       53       54       54      638      636       54      644
     1689        2        2        2       12       63       54       64       64      644      645       64      678
     1690        2        2        2       12       56       65       55       55      655      651       55      649
     1691        2        2        2       12       66       65       57       57      687      658       57      659
-1
esel,s,type,,2
keyop,2,2,1                ! Apply load in local coordinate system
keyop,2,7,1                ! Use original area so load is constant in large deformation
esel,all
/gst,on,on
fini
*get,_numnode,node,0,count
*get,_numelem,elem,0,count
*get, _MAXELEMNUM, elem, 0, NUM, MAX
*get, _MAXNODENUM, node, 0, NUM, MAX
*get, _MAXELEMTYPE, etyp, 0, NUM, MAX
*get, _MAXREALCONST, real, 0, NUM, MAX
/go
/wb,load,end               !  done creating loads
/com,--- Number of total nodes = %_numnode%
/com,--- Number of contact elements = 18
/com,--- Number of spring elements = 0
/com,--- Number of bearing elements = 0
/com,--- Number of solid elements = 933
/com,--- Number of condensed parts = 0
/com,--- Number of total elements = %_numelem%
*get,_wallbsol,active,,time,wall
/com,****************************************************************************
/com,*************************    SOLUTION       ********************************
/com,****************************************************************************
/solu
antype,0                   ! static analysis
_thickRatio=  0     ! Ratio of thick parts in the model
eqsl,sparse,,,,,1
cntr,print,1               ! print out contact info and also make no initial contact an error
dmpoption,emat,no             ! Don't combine emat file for DANSYS
dmpoption,esav,no             ! Don't combine esav file for DANSYS
nldiag,cont,iter           ! print out contact info each equilibrium iteration
rescontrol,,none                 ! Do not keep any restart files
/com,****************************************************
/com,******************* SOLVE FOR LS 1 OF 1 ****************
esel,s,type,,2
nsle
sfe,all,1,pres,1,999999.9999997
sfe,all,2,pres,1,0.
sfe,all,3,pres,1,0.
nsel,all
esel,all
/nopr
/gopr
nsub,1,1,1
time,1.
outres,erase
outres,all,none
outres,nsol,all,
outres,rsol,all
outres,eangl,all
outres,etmp,all
outres,veng,all
outres,strs,all,
outres,epel,all,
outres,eppl,all,
outres,cont,all,
! *********** WB SOLVE COMMAND ***********
! check interactive state
*get,ANSINTER_,active,,int
*if,ANSINTER_,ne,0,then
/eof
*endif
solve
/com *************** Write FE CONNECTORS ********* 
CEWRITE,file,ce,,INTE
/com,****************************************************
/com,*************** FINISHED SOLVE FOR LS 1 *************
*get,_wallasol,active,,time,wall
/nopr
*get,_numnode,node,0,count
*get,_numelem,elem,0,count
*get, _MAXELEMNUM, elem, 0, NUM, MAX
*get, _MAXNODENUM, node, 0, NUM, MAX,,,INTERNAL
*get, _MAXELEMTYPE, etyp, 0, NUM, MAX
*get, _MAXREALCONST, real, 0, NUM, MAX
/gopr
/post1
xmlo,ENCODING,ISO-8859-1
xmlo,parm
/xml,parm,xml
fini
/gopr
*get,_walldone,active,,time,wall
_preptime=(_wallbsol-_wallstrt)*3600
_solvtime=(_wallasol-_wallbsol)*3600
_posttime=(_walldone-_wallasol)*3600
_totaltim=(_walldone-_wallstrt)*3600
*get,_dlbratio,active,0,solu,dlbr
*get,_combtime,active,0,solu,comb
*get,_ssmode,active,0,solu,ssmm
*get,_ndofs,active,0,solu,ndof
*get,_sol_end_time,active,0,set,time
*if,_sol_end_time,eq,1.000000,then
/fclean				!clean distributed files
*endif
/com,--- Total number of nodes = %_numnode%
/com,--- Total number of elements = %_numelem%
/com,--- Element load balance ratio = %_dlbratio%
/com,--- Time to combine distributed files = %_combtime%
/com,--- Sparse memory mode = %_ssmode%
/com,--- Number of DOF = %_ndofs%
/wb,file,end               ! done with WB generated input
